data_image0
_chemical_formula_structural       Ce48O105P3H3OH2
_chemical_formula_sum              "Ce48 O106 P3 H5"
_cell_length_a       15.2082
_cell_length_b       15.2082
_cell_length_c       22.7609
_cell_angle_alpha    90
_cell_angle_beta     90
_cell_angle_gamma    120

_space_group_name_H-M_alt    "P 1"
_space_group_IT_number       1

loop_
  _space_group_symop_operation_xyz
  'x, y, z'

loop_
  _atom_site_type_symbol
  _atom_site_label
  _atom_site_symmetry_multiplicity
  _atom_site_fract_x
  _atom_site_fract_y
  _atom_site_fract_z
  _atom_site_occupancy
  Ce  Ce1       1.0  0.27723  0.17457  0.03410  1.0000
  Ce  Ce2       1.0  0.11039  0.34089  0.17114  1.0000
  Ce  Ce3       1.0  0.43933  0.00235  0.31717  1.0000
  Ce  Ce4       1.0  0.27723  0.42457  0.03410  1.0000
  Ce  Ce5       1.0  0.11173  0.09093  0.17306  1.0000
  Ce  Ce6       1.0  0.44375  0.26035  0.30417  1.0000
  Ce  Ce7       1.0  0.02723  0.42457  0.03410  1.0000
  Ce  Ce8       1.0  0.36057  0.08930  0.17280  1.0000
  Ce  Ce9       1.0  0.18991  0.26151  0.31148  1.0000
  Ce  Ce10      1.0  0.02723  0.17457  0.03410  1.0000
  Ce  Ce11      1.0  0.35937  0.34159  0.17119  1.0000
  Ce  Ce12      1.0  0.18522  0.99605  0.31435  1.0000
  Ce  Ce13      1.0  0.77723  0.17457  0.03410  1.0000
  Ce  Ce14      1.0  0.61283  0.34336  0.17187  1.0000
  Ce  Ce15      1.0  0.94214  0.00584  0.30942  1.0000
  Ce  Ce16      1.0  0.77723  0.42457  0.03410  1.0000
  Ce  Ce17      1.0  0.60920  0.09182  0.17345  1.0000
  Ce  Ce18      1.0  0.94491  0.25711  0.30995  1.0000
  Ce  Ce19      1.0  0.52723  0.42457  0.03410  1.0000
  Ce  Ce20      1.0  0.86079  0.09151  0.17182  1.0000
  Ce  Ce21      1.0  0.70365  0.26323  0.31164  1.0000
  Ce  Ce22      1.0  0.52723  0.17457  0.03410  1.0000
  Ce  Ce23      1.0  0.86102  0.34093  0.17132  1.0000
  Ce  Ce24      1.0  0.69364  0.00785  0.31063  1.0000
  Ce  Ce25      1.0  0.27723  0.67457  0.03410  1.0000
  Ce  Ce26      1.0  0.11058  0.84115  0.17166  1.0000
  Ce  Ce27      1.0  0.44012  0.51199  0.31088  1.0000
  Ce  Ce28      1.0  0.27723  0.92457  0.03410  1.0000
  Ce  Ce29      1.0  0.11090  0.59148  0.17108  1.0000
  Ce  Ce30      1.0  0.44395  0.75881  0.31068  1.0000
  Ce  Ce31      1.0  0.02723  0.92457  0.03410  1.0000
  Ce  Ce32      1.0  0.36038  0.59180  0.17137  1.0000
  Ce  Ce33      1.0  0.19184  0.75472  0.31054  1.0000
  Ce  Ce34      1.0  0.02723  0.67457  0.03410  1.0000
  Ce  Ce35      1.0  0.36128  0.84238  0.17247  1.0000
  Ce  Ce36      1.0  0.19337  0.50938  0.31035  1.0000
  Ce  Ce37      1.0  0.77723  0.67457  0.03410  1.0000
  Ce  Ce38      1.0  0.60950  0.84096  0.17210  1.0000
  Ce  Ce39      1.0  0.94778  0.50897  0.30991  1.0000
  Ce  Ce40      1.0  0.77723  0.92457  0.03410  1.0000
  Ce  Ce41      1.0  0.61020  0.59017  0.17260  1.0000
  Ce  Ce42      1.0  0.94118  0.75529  0.30918  1.0000
  Ce  Ce43      1.0  0.52723  0.92457  0.03410  1.0000
  Ce  Ce44      1.0  0.86029  0.59125  0.17142  1.0000
  Ce  Ce45      1.0  0.69269  0.75673  0.30982  1.0000
  Ce  Ce46      1.0  0.52723  0.67457  0.03410  1.0000
  Ce  Ce47      1.0  0.85997  0.84055  0.17154  1.0000
  Ce  Ce48      1.0  0.70071  0.51046  0.31417  1.0000
  O   O1        1.0  0.44390  0.00791  0.00000  1.0000
  O   O2        1.0  0.27611  0.17362  0.13732  1.0000
  O   O3        1.0  0.11021  0.34081  0.27537  1.0000
  O   O4        1.0  0.11057  0.34124  0.06820  1.0000
  O   O5        1.0  0.44397  0.00641  0.20790  1.0000
  O   O6        1.0  0.28074  0.16102  0.34974  1.0000
  O   O7        1.0  0.19390  0.00791  0.00000  1.0000
  O   O8        1.0  0.02753  0.17414  0.13685  1.0000
  O   O9        1.0  0.36010  0.34141  0.27675  1.0000
  O   O10       1.0  0.36057  0.34124  0.06820  1.0000
  O   O11       1.0  0.19492  0.00717  0.20955  1.0000
  O   O12       1.0  0.02789  0.17718  0.34687  1.0000
  O   O13       1.0  0.19390  0.25791  0.00000  1.0000
  O   O14       1.0  0.02739  0.42426  0.13634  1.0000
  O   O15       1.0  0.36928  0.09394  0.27803  1.0000
  O   O16       1.0  0.36057  0.09124  0.06820  1.0000
  O   O17       1.0  0.19384  0.25825  0.20820  1.0000
  O   O18       1.0  0.02978  0.42618  0.34630  1.0000
  O   O19       1.0  0.44390  0.25791  0.00000  1.0000
  O   O20       1.0  0.27712  0.42428  0.13632  1.0000
  O   O21       1.0  0.11276  0.09306  0.27863  1.0000
  O   O22       1.0  0.11057  0.09124  0.06820  1.0000
  O   O23       1.0  0.44238  0.25804  0.20517  1.0000
  O   O24       1.0  0.27645  0.42828  0.34371  1.0000
  O   O25       1.0  0.94390  0.00791  0.00000  1.0000
  O   O26       1.0  0.77695  0.17393  0.13696  1.0000
  O   O27       1.0  0.61228  0.34782  0.27240  1.0000
  O   O28       1.0  0.61057  0.34124  0.06820  1.0000
  O   O29       1.0  0.94601  0.00802  0.20780  1.0000
  O   O30       1.0  0.78415  0.17461  0.34417  1.0000
  O   O31       1.0  0.69390  0.00791  0.00000  1.0000
  O   O32       1.0  0.52766  0.17457  0.13770  1.0000
  O   O33       1.0  0.86467  0.34148  0.27467  1.0000
  O   O34       1.0  0.86057  0.34124  0.06820  1.0000
  O   O35       1.0  0.69158  0.00999  0.20988  1.0000
  O   O36       1.0  0.54904  0.22296  0.35712  1.0000
  O   O37       1.0  0.69390  0.25791  0.00000  1.0000
  O   O38       1.0  0.52690  0.42526  0.13713  1.0000
  O   O39       1.0  0.86167  0.08925  0.27442  1.0000
  O   O40       1.0  0.86057  0.09124  0.06820  1.0000
  O   O41       1.0  0.69574  0.25832  0.20831  1.0000
  O   O42       1.0  0.53031  0.42374  0.35653  1.0000
  O   O43       1.0  0.94390  0.25791  0.00000  1.0000
  O   O44       1.0  0.77734  0.42424  0.13647  1.0000
  O   O45       1.0  0.60567  0.09577  0.28202  1.0000
  O   O46       1.0  0.61057  0.09124  0.06820  1.0000
  O   O47       1.0  0.94450  0.25708  0.20677  1.0000
  O   O48       1.0  0.78630  0.42561  0.34400  1.0000
  O   O49       1.0  0.44390  0.50791  0.00000  1.0000
  O   O50       1.0  0.27761  0.67482  0.13657  1.0000
  O   O51       1.0  0.10654  0.83649  0.27490  1.0000
  O   O52       1.0  0.11057  0.84124  0.06820  1.0000
  O   O53       1.0  0.44223  0.50795  0.20830  1.0000
  O   O54       1.0  0.27563  0.67258  0.34668  1.0000
  O   O55       1.0  0.19390  0.50791  0.00000  1.0000
  O   O56       1.0  0.02767  0.67507  0.13654  1.0000
  O   O57       1.0  0.36074  0.84125  0.27777  1.0000
  O   O58       1.0  0.36057  0.84124  0.06820  1.0000
  O   O59       1.0  0.19408  0.50743  0.20688  1.0000
  O   O60       1.0  0.02813  0.67181  0.34640  1.0000
  O   O61       1.0  0.19390  0.75791  0.00000  1.0000
  O   O62       1.0  0.02800  0.92476  0.13700  1.0000
  O   O63       1.0  0.36091  0.59313  0.27520  1.0000
  O   O64       1.0  0.36057  0.59124  0.06820  1.0000
  O   O65       1.0  0.19492  0.75831  0.20724  1.0000
  O   O66       1.0  0.01817  0.91573  0.34266  1.0000
  O   O67       1.0  0.44390  0.75791  0.00000  1.0000
  O   O68       1.0  0.27724  0.92488  0.13683  1.0000
  O   O69       1.0  0.11144  0.59106  0.27402  1.0000
  O   O70       1.0  0.11057  0.59124  0.06820  1.0000
  O   O71       1.0  0.44385  0.75895  0.20774  1.0000
  O   O72       1.0  0.26793  0.91607  0.34502  1.0000
  O   O73       1.0  0.94390  0.50791  0.00000  1.0000
  O   O74       1.0  0.77708  0.67558  0.13612  1.0000
  O   O75       1.0  0.61142  0.84093  0.27519  1.0000
  O   O76       1.0  0.61057  0.84124  0.06820  1.0000
  O   O77       1.0  0.94441  0.50808  0.20663  1.0000
  O   O78       1.0  0.77855  0.67599  0.34463  1.0000
  O   O79       1.0  0.69390  0.50791  0.00000  1.0000
  O   O80       1.0  0.52653  0.67454  0.13685  1.0000
  O   O81       1.0  0.85641  0.84021  0.27366  1.0000
  O   O82       1.0  0.86057  0.84124  0.06820  1.0000
  O   O83       1.0  0.69646  0.51137  0.20631  1.0000
  O   O84       1.0  0.52487  0.67393  0.34571  1.0000
  O   O85       1.0  0.69390  0.75791  0.00000  1.0000
  O   O86       1.0  0.52797  0.92487  0.13696  1.0000
  O   O87       1.0  0.86167  0.59126  0.27567  1.0000
  O   O88       1.0  0.86057  0.59124  0.06820  1.0000
  O   O89       1.0  0.69079  0.75420  0.20804  1.0000
  O   O90       1.0  0.52839  0.92127  0.34639  1.0000
  O   O91       1.0  0.94390  0.75791  0.00000  1.0000
  O   O92       1.0  0.77627  0.92470  0.13791  1.0000
  O   O93       1.0  0.60619  0.58455  0.27865  1.0000
  O   O94       1.0  0.61057  0.59124  0.06820  1.0000
  O   O95       1.0  0.94230  0.75720  0.20670  1.0000
  O   O96       1.0  0.77696  0.92473  0.34629  1.0000
  O   O97       1.0  0.21942  0.23495  0.42840  1.0000
  O   O98       1.0  0.45248  0.07536  0.40905  1.0000
  O   O99       1.0  0.39609  0.29273  0.40140  1.0000
  O   O100      1.0  0.33047  0.15459  0.47380  1.0000
  O   O101      1.0  0.65542  0.21089  0.42313  1.0000
  O   O102      1.0  0.53515  0.28762  0.44931  1.0000
  O   O103      1.0  0.53535  0.15386  0.49927  1.0000
  O   O104      1.0  0.50027  0.43861  0.47160  1.0000
  O   O105      1.0  0.65803  0.45756  0.42043  1.0000
  P   P1        1.0  0.29061  0.18154  0.42101  1.0000
  P   P2        1.0  0.53585  0.18432  0.42830  1.0000
  P   P3        1.0  0.52160  0.38367  0.42543  1.0000
  H   H1        1.0  0.47043  0.14074  0.51585  1.0000
  H   H2        1.0  0.67808  0.19205  0.45850  1.0000
  H   H3        1.0  0.68989  0.42655  0.44283  1.0000
  O   O106      1.0  0.17440  0.05230  0.42035  1.0000
  H   H4        1.0  0.18367  0.02139  0.45566  1.0000
  H   H5        1.0  0.15128  0.18176  0.43981  1.0000
